Version 4
SHEET 1 1000 680
WIRE -544 224 -576 224
WIRE -272 224 -272 128
WIRE -272 224 -320 224
WIRE -992 240 -992 160
WIRE -992 240 -1104 240
WIRE -880 240 -992 240
WIRE -576 240 -576 224
WIRE -672 288 -720 288
WIRE -544 288 -672 288
WIRE -208 288 -320 288
WIRE -1104 336 -1104 240
WIRE -880 336 -880 240
WIRE -208 368 -208 288
WIRE -544 416 -576 416
WIRE -672 432 -672 288
WIRE -1104 464 -1104 400
WIRE -992 464 -1024 464
WIRE -960 464 -992 464
WIRE -880 464 -880 400
WIRE -576 544 -576 416
WIRE -208 544 -208 448
WIRE -208 544 -576 544
WIRE -112 544 -112 400
WIRE -112 544 -208 544
WIRE -992 560 -992 464
WIRE -672 608 -672 496
FLAG -1344 432 0
FLAG -1344 352 vcc
FLAG -272 128 vcc
FLAG -576 240 0
FLAG -992 160 pin_2
IOPIN -992 160 In
FLAG -320 352 pin_2
IOPIN -320 352 In
FLAG -544 352 out
IOPIN -544 352 In
FLAG -992 560 out
IOPIN -992 560 In
FLAG -720 288 pin_2
IOPIN -720 288 In
FLAG -672 608 0
FLAG -112 400 vcc
SYMBOL Misc\\NE555 -432 320 R0
SYMATTR InstName U4
SYMBOL voltage -1344 336 R0
WINDOW 123 0 0 Left 0
WINDOW 39 0 0 Left 0
SYMATTR InstName V1
SYMATTR Value 12
SYMBOL res -1008 448 R90
WINDOW 0 0 56 VBottom 2
WINDOW 3 32 56 VTop 2
SYMATTR InstName R1
SYMATTR Value 40k
SYMBOL res -864 448 R90
WINDOW 0 0 56 VBottom 2
WINDOW 3 32 56 VTop 2
SYMATTR InstName R2
SYMATTR Value 10k
SYMBOL diode -896 336 R0
SYMATTR InstName D1
SYMATTR Value 1N4007
SYMBOL diode -1088 400 R180
WINDOW 0 24 64 Left 2
WINDOW 3 24 0 Left 2
SYMATTR InstName D2
SYMATTR Value 1N4007
SYMBOL res -224 352 R0
SYMATTR InstName R3
SYMATTR Value 1k
SYMBOL cap -688 432 R0
SYMATTR InstName C1
SYMATTR Value 100n
TEXT -1256 48 Left 2 !.tran 0 20m 2m
TEXT -1256 8 Left 2 !.MODEL 1N4007 D  ( IS=76.9p RS=42.0m BV=1.00k IBV=5.00u CJO=26.5p  M=0.333 N=1.45 TT=4.32u )
TEXT -1256 -64 Left 2 ;NE555 PWM Driver\nmedogan.com
